omf/solvers/opendss/EPRI-J1.clean.dss


!!!master.dss
clear
new object=circuit.j1


! redirect vsource.dss
! makebuslist
! redirect busvoltagebases.dss ! set voltage bases
! buscoords buscoords.dss
! giscoords giscoords.dss


!!!loadshape.dss
new object=loadshape.default npts=24 interval=1 mult=[0.677,0.6256,0.6087,0.5833,0.58028,0.6025,0.657,0.7477,0.832,0.88,0.94,0.989,0.985,0.98,0.9898,0.999,1,0.958,0.936,0.913,0.876,0.876,0.828,0.756]
new object=loadshape.commercial npts=1 sinterval=1 mult=[1]
new object=loadshape.other npts=1 sinterval=1 mult=[1]
new object=loadshape.aggloadprofile npts=1 sinterval=1 mult=[1]


!!!vsource.dss
edit object=vsource.source pu=0.97 r1=1.376 x1=14.257 r0=0.001 x0=8.203 bus1=s basekv=69


!!!transformer.dss
new object=transformer.subxfmr phases=3 windings=2 buses=[s,ls_bus] conns=[wye,wye] kvs=[68.8,13.09] kvas=[16000,16000] numtaps=16 xhl=11.63 buses=[s,ls_bus] conns=[wye,wye] kvs=[68.8,13.09] kvas=[16000,16000] taps=[1,1.0125] wdg=1 %r=0.596 rdcohms=0.4995751 wdg=2 %r=0.596 rdcohms=0.01808436 ppm_antifloat=5
new object=transformer.b13552-1a phases=1 buses=[b13552.1,x_b13552-a.1] conns=[wye,wye] kvs=[7.2,0.24] kvas=[40,40] taps=[1,1] wdg=1 %r=0.36105 rdcohms=3.977327 wdg=2 %r=0.36105 rdcohms=0.004419252 %loadloss=0.7221 %noloadloss=0.2423 xhl=1.5158 normhkva=40 emerghkva=56
new object=transformer.b34986-1c phases=1 buses=[b34986.3,x_b34986-c.3] conns=[wye,wye] kvs=[7.2,0.24] kvas=[25,25] taps=[1,1] wdg=1 %r=0.38195 rdcohms=6.732098 wdg=2 %r=0.38195 rdcohms=0.007480109 %loadloss=0.7639 %noloadloss=0.0851 xhl=2.1 normhkva=25 emerghkva=35
new object=transformer.b45835-1b phases=1 buses=[b45835.2,x_b45835-b.2] conns=[wye,wye] kvs=[7.2,0.24] kvas=[25,25] taps=[1,1] wdg=1 %r=0.38195 rdcohms=6.732098 wdg=2 %r=0.38195 rdcohms=0.007480109 %loadloss=0.7639 %noloadloss=0.0851 xhl=2.1 normhkva=25 emerghkva=35
new object=transformer.b50640-1a phases=1 buses=[b50640.1,x_b50640-a.1] conns=[wye,wye] kvs=[7.2,0.24] kvas=[15,15] taps=[1,1] wdg=1 %r=0.52 rdcohms=15.27552 wdg=2 %r=0.52 rdcohms=0.0169728 %loadloss=1.04 %noloadloss=0.34 xhl=1.5 normhkva=15 emerghkva=21
new object=transformer.b4805-1c phases=1 buses=[b4805.3,x_b4805-c.3] conns=[wye,wye] kvs=[7.2,0.24] kvas=[50,50] taps=[1,1] wdg=1 %r=0.369 rdcohms=3.251923 wdg=2 %r=0.369 rdcohms=0.003613248 %loadloss=0.738 %noloadloss=0.1987 xhl=1.7532 normhkva=50 emerghkva=70
new object=transformer.b4710-1a phases=1 buses=[b4710.1,x_b4710-a.1] conns=[wye,wye] kvs=[7.2,0.24] kvas=[15,15] taps=[1,1] wdg=1 %r=0.52 rdcohms=15.27552 wdg=2 %r=0.52 rdcohms=0.0169728 %loadloss=1.04 %noloadloss=0.34 xhl=1.5 normhkva=15 emerghkva=21
new object=transformer.b4859-1a phases=1 buses=[b4859.1,x_b4859-a.1] conns=[wye,wye] kvs=[7.2,0.24] kvas=[25,25] taps=[1,1] wdg=1 %r=0.38195 rdcohms=6.732098 wdg=2 %r=0.38195 rdcohms=0.007480109 %loadloss=0.7639 %noloadloss=0.0851 xhl=2.1 normhkva=25 emerghkva=35
new object=transformer.b4859-1b phases=1 buses=[b4859.2,x_b4859-b.2] conns=[wye,wye] kvs=[7.2,0.24] kvas=[25,25] taps=[1,1] wdg=1 %r=0.38195 rdcohms=6.732098 wdg=2 %r=0.38195 rdcohms=0.007480109 %loadloss=0.7639 %noloadloss=0.0851 xhl=2.1 normhkva=25 emerghkva=35
new object=transformer.b4859-1c phases=1 buses=[b4859.3,x_b4859-c.3] conns=[wye,wye] kvs=[7.2,0.24] kvas=[25,25] taps=[1,1] wdg=1 %r=0.38195 rdcohms=6.732098 wdg=2 %r=0.38195 rdcohms=0.007480109 %loadloss=0.7639 %noloadloss=0.0851 xhl=2.1 normhkva=25 emerghkva=35
new object=transformer.b41240-1a phases=1 buses=[b41240.1,x_b41240-a.1] conns=[wye,wye] kvs=[7.2,0.24] kvas=[15,15] taps=[1,1] wdg=1 %r=0.52 rdcohms=15.27552 wdg=2 %r=0.52 rdcohms=0.0169728 %loadloss=1.04 %noloadloss=0.34 xhl=1.5 normhkva=15 emerghkva=21
new object=transformer.b55546-1c phases=1 buses=[b55546.3,x_b55546-c.3] conns=[wye,wye] kvs=[7.2,0.24] kvas=[15,15] taps=[1,1] wdg=1 %r=0.52 rdcohms=15.27552 wdg=2 %r=0.52 rdcohms=0.0169728 %loadloss=1.04 %noloadloss=0.34 xhl=1.5 normhkva=15 emerghkva=21
new object=transformer.b18979-1c phases=1 buses=[b18979.3,x_b18979-c.3] conns=[wye,wye] kvs=[7.2,0.24] kvas=[15,15] taps=[1,1] wdg=1 %r=0.52 rdcohms=15.27552 wdg=2 %r=0.52 rdcohms=0.0169728 %loadloss=1.04 %noloadloss=0.34 xhl=1.5 normhkva=15 emerghkva=21
new object=transformer.b4982-1b phases=1 buses=[b4982.2,x_b4982-b.2] conns=[wye,wye] kvs=[7.2,0.24] kvas=[15,15] taps=[1,1] wdg=1 %r=0.52 rdcohms=15.27552 wdg=2 %r=0.52 rdcohms=0.0169728 %loadloss=1.04 %noloadloss=0.34 xhl=1.5 normhkva=15 emerghkva=21
new object=transformer.b18902-1a phases=1 buses=[b18902.1,x_b18902-a.1] conns=[wye,wye] kvs=[7.2,0.24] kvas=[15,15] taps=[1,1] wdg=1 %r=0.52 rdcohms=15.27552 wdg=2 %r=0.52 rdcohms=0.0169728 %loadloss=1.04 %noloadloss=0.34 xhl=1.5 normhkva=15 emerghkva=21
new object=transformer.b2532-1a phases=1 buses=[b2532.1,x_b2532-a.1] conns=[wye,wye] kvs=[7.2,0.24] kvas=[15,15] taps=[1,1] wdg=1 %r=0.52 rdcohms=15.27552 wdg=2 %r=0.52 rdcohms=0.0169728 %loadloss=1.04 %noloadloss=0.34 xhl=1.5 normhkva=15 emerghkva=21
new object=transformer.b47668-1a phases=1 buses=[b47668.1,x_b47668-a.1] conns=[wye,wye] kvs=[7.2,0.24] kvas=[15,15] taps=[1,1] wdg=1 %r=0.52 rdcohms=15.27552 wdg=2 %r=0.52 rdcohms=0.0169728 %loadloss=1.04 %noloadloss=0.34 xhl=1.5 normhkva=15 emerghkva=21
new object=transformer.b47668-1b phases=1 buses=[b47668.2,x_b47668-b.2] conns=[wye,wye] kvs=[7.2,0.24] kvas=[15,15] taps=[1,1] wdg=1 %r=0.52 rdcohms=15.27552 wdg=2 %r=0.52 rdcohms=0.0169728 %loadloss=1.04 %noloadloss=0.34 xhl=1.5 normhkva=15 emerghkva=21
new object=transformer.b47668-1c phases=1 buses=[b47668.3,x_b47668-c.3] conns=[wye,wye] kvs=[7.2,0.24] kvas=[15,15] taps=[1,1] wdg=1 %r=0.52 rdcohms=15.27552 wdg=2 %r=0.52 rdcohms=0.0169728 %loadloss=1.04 %noloadloss=0.34 xhl=1.5 normhkva=15 emerghkva=21
new object=transformer.b4891-1c phases=1 buses=[b4891.3,x_b4891-c.3] conns=[wye,wye] kvs=[7.2,0.24] kvas=[25,25] taps=[1,1] wdg=1 %r=0.38195 rdcohms=6.732098 wdg=2 %r=0.38195 rdcohms=0.007480109 %loadloss=0.7639 %noloadloss=0.0851 xhl=2.1 normhkva=25 emerghkva=35
new object=transformer.b18858-1b phases=1 buses=[b18858.2,x_b18858-b.2] conns=[wye,wye] kvs=[7.2,0.24] kvas=[15,15] taps=[1,1] wdg=1 %r=0.52 rdcohms=15.27552 wdg=2 %r=0.52 rdcohms=0.0169728 %loadloss=1.04 %noloadloss=0.34 xhl=1.5 normhkva=15 emerghkva=21
new object=transformer.5851228580-1c phases=1 buses=[5851228580.3,x_5851228580-c.3] conns=[wye,wye] kvs=[7.2,0.24] kvas=[25,25] taps=[1,1] wdg=1 %r=0.38195 rdcohms=6.732098 wdg=2 %r=0.38195 rdcohms=0.007480109 %loadloss=0.7639 %noloadloss=0.0851 xhl=2.1 normhkva=25 emerghkva=35
new object=transformer.b18971-1c phases=1 buses=[b18971.3,x_b18971-c.3] conns=[wye,wye] kvs=[7.2,0.24] kvas=[25,25] taps=[1,1] wdg=1 %r=0.38195 rdcohms=6.732098 wdg=2 %r=0.38195 rdcohms=0.007480109 %loadloss=0.7639 %noloadloss=0.0851 xhl=2.1 normhkva=25 emerghkva=35
new object=transformer.b8019-1c phases=1 buses=[b8019.3,x_b8019-c.3] conns=[wye,wye] kvs=[7.2,0.24] kvas=[25,25] taps=[1,1] wdg=1 %r=0.38195 rdcohms=6.732098 wdg=2 %r=0.38195 rdcohms=0.007480109 %loadloss=0.7639 %noloadloss=0.0851 xhl=2.1 normhkva=25 emerghkva=35
new object=transformer.b60843-1c phases=1 buses=[b60843.3,x_b60843-c.3] conns=[wye,wye] kvs=[7.2,0.24] kvas=[15,15] taps=[1,1] wdg=1 %r=0.52 rdcohms=15.27552 wdg=2 %r=0.52 rdcohms=0.0169728 %loadloss=1.04 %noloadloss=0.34 xhl=1.5 normhkva=15 emerghkva=21
new object=transformer.b44432-1c phases=1 buses=[b44432.3,x_b44432-c.3] conns=[wye,wye] kvs=[7.2,0.24] kvas=[10,10] taps=[1,1] wdg=1 %r=0.511 rdcohms=22.5167 wdg=2 %r=0.511 rdcohms=0.02501856 %loadloss=1.022 %noloadloss=0.3221 xhl=1.707 normhkva=10 emerghkva=14
new object=transformer.b52584-1b phases=1 buses=[b52584.2,x_b52584-b.2] conns=[wye,wye] kvs=[7.2,0.24] kvas=[25,25] taps=[1,1] wdg=1 %r=0.38195 rdcohms=6.732098 wdg=2 %r=0.38195 rdcohms=0.007480109 %loadloss=0.7639 %noloadloss=0.0851 xhl=2.1 normhkva=25 emerghkva=35
new object=transformer.b41463-1c phases=1 buses=[b41463.3,x_b41463-c.3] conns=[wye,wye] kvs=[7.2,0.24] kvas=[25,25] taps=[1,1] wdg=1 %r=0.38195 rdcohms=6.732098 wdg=2 %r=0.38195 rdcohms=0.007480109 %loadloss=0.7639 %noloadloss=0.0851 xhl=2.1 normhkva=25 emerghkva=35
new object=transformer.5905728658-1b phases=1 buses=[5905728658.2,x_5905728658-b.2] conns=[wye,wye] kvs=[7.2,0.24] kvas=[15,15] taps=[1,1] wdg=1 %r=0.52 rdcohms=15.27552 wdg=2 %r=0.52 rdcohms=0.0169728 %loadloss=1.04 %noloadloss=0.34 xhl=1.5 normhkva=15 emerghkva=21
new object=transformer.b15821-1c phases=1 buses=[b15821.3,x_b15821-c.3] conns=[wye,wye] kvs=[7.2,0.24] kvas=[15,15] taps=[1,1] wdg=1 %r=0.52 rdcohms=15.27552 wdg=2 %r=0.52 rdcohms=0.0169728 %loadloss=1.04 %noloadloss=0.34 xhl=1.5 normhkva=15 emerghkva=21
new object=transformer.b18850-1b phases=1 buses=[b18850.2,x_b18850-b.2] conns=[wye,wye] kvs=[7.2,0.24] kvas=[15,15] taps=[1,1] wdg=1 %r=0.52 rdcohms=15.27552 wdg=2 %r=0.52 rdcohms=0.0169728 %loadloss=1.04 %noloadloss=0.34 xhl=1.5 normhkva=15 emerghkva=21
new object=transformer.b18866-1a phases=1 buses=[b18866.1,x_b18866-a.1] conns=[wye,wye] kvs=[7.2,0.24] kvas=[15,15] taps=[1,1] wdg=1 %r=0.52 rdcohms=15.27552 wdg=2 %r=0.52 rdcohms=0.0169728 %loadloss=1.04 %noloadloss=0.34 xhl=1.5 normhkva=15 emerghkva=21
new object=transformer.6060229368-1b phases=1 buses=[6060229368.2,x_6060229368-b.2] conns=[wye,wye] kvs=[7.2,0.24] kvas=[25,25] taps=[1,1] wdg=1 %r=0.38195 rdcohms=6.732098 wdg=2 %r=0.38195 rdcohms=0.007480109 %loadloss=0.7639 %noloadloss=0.0851 xhl=2.1 normhkva=25 emerghkva=35
new object=transformer.b52162-1a phases=1 buses=[b52162.1,x_b52162-a.1] conns=[wye,wye] kvs=[7.2,0.24] kvas=[15,15] taps=[1,1] wdg=1 %r=0.52 rdcohms=15.27552 wdg=2 %r=0.52 rdcohms=0.0169728 %loadloss=1.04 %noloadloss=0.34 xhl=1.5 normhkva=15 emerghkva=21
new object=transformer.g43337-1a phases=1 buses=[g43337.1,x_g43337-a.1] conns=[wye,wye] kvs=[7.2,0.24] kvas=[15,15] taps=[1,1] wdg=1 %r=0.52 rdcohms=15.27552 wdg=2 %r=0.52 rdcohms=0.0169728 %loadloss=1.04 %noloadloss=0.34 xhl=1.5 normhkva=15 emerghkva=21
new object=transformer.b18977-1c phases=1 buses=[b18977.3,x_b18977-c.3] conns=[wye,wye] kvs=[7.2,0.24] kvas=[15,15] taps=[1,1] wdg=1 %r=0.52 rdcohms=15.27552 wdg=2 %r=0.52 rdcohms=0.0169728 %loadloss=1.04 %noloadloss=0.34 xhl=1.5 normhkva=15 emerghkva=21
new object=transformer.b18839-1b phases=1 buses=[b18839.2,x_b18839-b.2] conns=[wye,wye] kvs=[7.2,0.24] kvas=[15,15] taps=[1,1] wdg=1 %r=0.52 rdcohms=15.27552 wdg=2 %r=0.52 rdcohms=0.0169728 %loadloss=1.04 %noloadloss=0.34 xhl=1.5 normhkva=15 emerghkva=21
new object=transformer.b46251-1c phases=1 buses=[b46251.3,x_b46251-c.3] conns=[wye,wye] kvs=[7.2,0.24] kvas=[10,10] taps=[1,1] wdg=1 %r=0.511 rdcohms=22.5167 wdg=2 %r=0.511 rdcohms=0.02501856 %loadloss=1.022 %noloadloss=0.3221 xhl=1.707 normhkva=10 emerghkva=14
new object=transformer.b18925-1b phases=1 buses=[b18925.2,x_b18925-b.2] conns=[wye,wye] kvs=[7.2,0.24] kvas=[10,10] taps=[1,1] wdg=1 %r=0.511 rdcohms=22.5167 wdg=2 %r=0.511 rdcohms=0.02501856 %loadloss=1.022 %noloadloss=0.3221 xhl=1.707 normhkva=10 emerghkva=14
new object=transformer.b22569-1a phases=1 buses=[b22569.1,x_b22569-a.1] conns=[wye,wye] kvs=[7.2,0.24] kvas=[15,15] taps=[1,1] wdg=1 %r=0.52 rdcohms=15.27552 wdg=2 %r=0.52 rdcohms=0.0169728 %loadloss=1.04 %noloadloss=0.34 xhl=1.5 normhkva=15 emerghkva=21
new object=transformer.b23880-1c phases=1 buses=[b23880.3,x_b23880-c.3] conns=[wye,wye] kvs=[7.2,0.24] kvas=[25,25] taps=[1,1] wdg=1 %r=0.38195 rdcohms=6.732098 wdg=2 %r=0.38195 rdcohms=0.007480109 %loadloss=0.7639 %noloadloss=0.0851 xhl=2.1 normhkva=25 emerghkva=35
new object=transformer.b3066-1c phases=1 buses=[b3066.3,x_b3066-c.3] conns=[wye,wye] kvs=[7.2,0.24] kvas=[25,25] taps=[1,1] wdg=1 %r=0.38195 rdcohms=6.732098 wdg=2 %r=0.38195 rdcohms=0.007480109 %loadloss=0.7639 %noloadloss=0.0851 xhl=2.1 normhkva=25 emerghkva=35
new object=transformer.b63365-1b phases=1 buses=[b63365.2,x_b63365-b.2] conns=[wye,wye] kvs=[7.2,0.24] kvas=[25,25] taps=[1,1] wdg=1 %r=0.38195 rdcohms=6.732098 wdg=2 %r=0.38195 rdcohms=0.007480109 %loadloss=0.7639 %noloadloss=0.0851 xhl=2.1 normhkva=25 emerghkva=35
new object=transformer.b26203-1c phases=1 buses=[b26203.3,x_b26203-c.3] conns=[wye,wye] kvs=[7.2,0.24] kvas=[25,25] taps=[1,1] wdg=1 %r=0.38195 rdcohms=6.732098 wdg=2 %r=0.38195 rdcohms=0.007480109 %loadloss=0.7639 %noloadloss=0.0851 xhl=2.1 normhkva=25 emerghkva=35
new object=transformer.b23869-1c phases=1 buses=[b23869.3,x_b23869-c.3] conns=[wye,wye] kvs=[7.2,0.24] kvas=[15,15] taps=[1,1] wdg=1 %r=0.52 rdcohms=15.27552 wdg=2 %r=0.52 rdcohms=0.0169728 %loadloss=1.04 %noloadloss=0.34 xhl=1.5 normhkva=15 emerghkva=21
new object=transformer.b56446-1a phases=1 buses=[b56446.1,x_b56446-a.1] conns=[wye,wye] kvs=[7.2,0.24] kvas=[15,15] taps=[1,1] wdg=1 %r=0.52 rdcohms=15.27552 wdg=2 %r=0.52 rdcohms=0.0169728 %loadloss=1.04 %noloadloss=0.34 xhl=1.5 normhkva=15 emerghkva=21
new object=transformer.b18986-1c phases=1 buses=[b18986.3,x_b18986-c.3] conns=[wye,wye] kvs=[7.2,0.24] kvas=[25,25] taps=[1,1] wdg=1 %r=0.38195 rdcohms=6.732098 wdg=2 %r=0.38195 rdcohms=0.007480109 %loadloss=0.7639 %noloadloss=0.0851 xhl=2.1 normhkva=25 emerghkva=35
new object=transformer.b13651-1a phases=1 buses=[b13651.1,x_b13651-a.1] conns=[wye,wye] kvs=[7.2,0.24] kvas=[38,38] taps=[1,1] wdg=1 %r=0.36105 rdcohms=4.18666 wdg=2 %r=0.36105 rdcohms=0.004651844 %loadloss=0.7221 %noloadloss=0.2423 xhl=1.5158 normhkva=37.5 emerghkva=53.2
new object=transformer.6034628876-1c phases=1 buses=[6034628876.3,x_6034628876-c.3] conns=[wye,wye] kvs=[7.2,0.24] kvas=[25,25] taps=[1,1] wdg=1 %r=0.38195 rdcohms=6.732098 wdg=2 %r=0.38195 rdcohms=0.007480109 %loadloss=0.7639 %noloadloss=0.0851 xhl=2.1 normhkva=25 emerghkva=35
new object=transformer.b17575-1c phases=1 buses=[b17575.3,x_b17575-c.3] conns=[wye,wye] kvs=[7.2,0.24] kvas=[25,25] taps=[1,1] wdg=1 %r=0.38195 rdcohms=6.732098 wdg=2 %r=0.38195 rdcohms=0.007480109 %loadloss=0.7639 %noloadloss=0.0851 xhl=2.1 normhkva=25 emerghkva=35
new object=transformer.b10925-1c phases=1 buses=[b10925.3,x_b10925-c.3] conns=[wye,wye] kvs=[7.2,0.24] kvas=[15,15] taps=[1,1] wdg=1 %r=0.52 rdcohms=15.27552 wdg=2 %r=0.52 rdcohms=0.0169728 %loadloss=1.04 %noloadloss=0.34 xhl=1.5 normhkva=15 emerghkva=21
new object=transformer.b23406-1a phases=1 buses=[b23406.1,x_b23406-a.1] conns=[wye,wye] kvs=[7.2,0.24] kvas=[25,25] taps=[1,1] wdg=1 %r=0.38195 rdcohms=6.732098 wdg=2 %r=0.38195 rdcohms=0.007480109 %loadloss=0.7639 %noloadloss=0.0851 xhl=2.1 normhkva=25 emerghkva=35
new object=transformer.b4594-1c phases=1 buses=[b4594.3,x_b4594-c.3] conns=[wye,wye] kvs=[7.2,0.24] kvas=[38,38] taps=[1,1] wdg=1 %r=0.36105 rdcohms=4.18666 wdg=2 %r=0.36105 rdcohms=0.004651844 %loadloss=0.7221 %noloadloss=0.2423 xhl=1.5158 normhkva=37.5 emerghkva=53.2
new object=transformer.6018228840-1c phases=1 buses=[6018228840.3,x_6018228840-c.3] conns=[wye,wye] kvs=[7.2,0.24] kvas=[50,50] taps=[1,1] wdg=1 %r=0.369 rdcohms=3.251923 wdg=2 %r=0.369 rdcohms=0.003613248 %loadloss=0.738 %noloadloss=0.1987 xhl=1.7532 normhkva=50 emerghkva=70
new object=transformer.b5185-1c phases=1 buses=[b5185.3,x_b5185-c.3] conns=[wye,wye] kvs=[7.2,0.24] kvas=[25,25] taps=[1,1] wdg=1 %r=0.38195 rdcohms=6.732098 wdg=2 %r=0.38195 rdcohms=0.007480109 %loadloss=0.7639 %noloadloss=0.0851 xhl=2.1 normhkva=25 emerghkva=35
new object=transformer.b48180-1c phases=1 buses=[b48180.3,x_b48180-c.3] conns=[wye,wye] kvs=[7.2,0.24] kvas=[15,15] taps=[1,1] wdg=1 %r=0.52 rdcohms=15.27552 wdg=2 %r=0.52 rdcohms=0.0169728 %loadloss=1.04 %noloadloss=0.34 xhl=1.5 normhkva=15 emerghkva=21
new object=transformer.g35573-1a phases=1 buses=[g35573.1,x_g35573-a.1] conns=[wye,wye] kvs=[7.2,0.24] kvas=[38,38] taps=[1,1] wdg=1 %r=0.36105 rdcohms=4.18666 wdg=2 %r=0.36105 rdcohms=0.004651844 %loadloss=0.7221 %noloadloss=0.2423 xhl=1.5158 normhkva=37.5 emerghkva=53.2
new object=transformer.g35573-1b phases=1 buses=[g35573.2,x_g35573-b.2] conns=[wye,wye] kvs=[7.2,0.24] kvas=[38,38] taps=[1,1] wdg=1 %r=0.36105 rdcohms=4.18666 wdg=2 %r=0.36105 rdcohms=0.004651844 %loadloss=0.7221 %noloadloss=0.2423 xhl=1.5158 normhkva=37.5 emerghkva=53.2
new object=transformer.g35573-1c phases=1 buses=[g35573.3,x_g35573-c.3] conns=[wye,wye] kvs=[7.2,0.24] kvas=[38,38] taps=[1,1] wdg=1 %r=0.36105 rdcohms=4.18666 wdg=2 %r=0.36105 rdcohms=0.004651844 %loadloss=0.7221 %noloadloss=0.2423 xhl=1.5158 normhkva=37.5 emerghkva=53.2
new object=transformer.b59582-1c phases=1 buses=[b59582.3,x_b59582-c.3] conns=[wye,wye] kvs=[7.2,0.24] kvas=[15,15] taps=[1,1] wdg=1 %r=0.52 rdcohms=15.27552 wdg=2 %r=0.52 rdcohms=0.0169728 %loadloss=1.04 %noloadloss=0.34 xhl=1.5 normhkva=15 emerghkva=21
new object=transformer.g33468-1b phases=1 buses=[g33468.2,x_g33468-b.2] conns=[wye,wye] kvs=[7.2,0.24] kvas=[15,15] taps=[1,1] wdg=1 %r=0.52 rdcohms=15.27552 wdg=2 %r=0.52 rdcohms=0.0169728 %loadloss=1.04 %noloadloss=0.34 xhl=1.5 normhkva=15 emerghkva=21
new object=transformer.b4861-1b phases=1 buses=[b4861.2,x_b4861-b.2] conns=[wye,wye] kvs=[7.2,0.24] kvas=[38,38] taps=[1,1] wdg=1 %r=0.36105 rdcohms=4.18666 wdg=2 %r=0.36105 rdcohms=0.004651844 %loadloss=0.7221 %noloadloss=0.2423 xhl=1.5158 normhkva=37.5 emerghkva=53.2
new object=transformer.6000828811-1a phases=1 buses=[6000828811.1,x_6000828811-a.1] conns=[wye,wye] kvs=[7.2,0.24] kvas=[40,40] taps=[1,1] wdg=1 %r=0.36105 rdcohms=3.977327 wdg=2 %r=0.36105 rdcohms=0.004419252 %loadloss=0.7221 %noloadloss=0.2423 xhl=1.5158 normhkva=40 emerghkva=56
new object=transformer.b18995-1c phases=1 buses=[b18995.3,x_b18995-c.3] conns=[wye,wye] kvs=[7.2,0.24] kvas=[15,15] taps=[1,1] wdg=1 %r=0.52 rdcohms=15.27552 wdg=2 %r=0.52 rdcohms=0.0169728 %loadloss=1.04 %noloadloss=0.34 xhl=1.5 normhkva=15 emerghkva=21
new object=transformer.g42394-1c phases=1 buses=[g42394.3,x_g42394-c.3] conns=[wye,wye] kvs=[7.2,0.24] kvas=[15,15] taps=[1,1] wdg=1 %r=0.52 rdcohms=15.27552 wdg=2 %r=0.52 rdcohms=0.0169728 %loadloss=1.04 %noloadloss=0.34 xhl=1.5 normhkva=15 emerghkva=21
new object=transformer.b36183-1c phases=1 buses=[b36183.3,x_b36183-c.3] conns=[wye,wye] kvs=[7.2,0.24] kvas=[15,15] taps=[1,1] wdg=1 %r=0.52 rdcohms=15.27552 wdg=2 %r=0.52 rdcohms=0.0169728 %loadloss=1.04 %noloadloss=0.34 xhl=1.5 normhkva=15 emerghkva=21
new object=transformer.b62294-1c phases=1 buses=[b62294.3,x_b62294-c.3] conns=[wye,wye] kvs=[7.2,0.24] kvas=[25,25] taps=[1,1] wdg=1 %r=0.38195 rdcohms=6.732098 wdg=2 %r=0.38195 rdcohms=0.007480109 %loadloss=0.7639 %noloadloss=0.0851 xhl=2.1 normhkva=25 emerghkva=35
new object=transformer.g35320-1b phases=1 buses=[g35320.2,x_g35320-b.2] conns=[wye,wye] kvs=[7.2,0.24] kvas=[15,15] taps=[1,1] wdg=1 %r=0.52 rdcohms=15.27552 wdg=2 %r=0.52 rdcohms=0.0169728 %loadloss=1.04 %noloadloss=0.34 xhl=1.5 normhkva=15 emerghkva=21
new object=transformer.g40623-1a phases=1 buses=[g40623.1,x_g40623-a.1] conns=[wye,wye] kvs=[7.2,0.24] kvas=[25,25] taps=[1,1] wdg=1 %r=0.38195 rdcohms=6.732098 wdg=2 %r=0.38195 rdcohms=0.007480109 %loadloss=0.7639 %noloadloss=0.0851 xhl=2.1 normhkva=25 emerghkva=35
new object=transformer.b34541-1a phases=1 buses=[b34541.1,x_b34541-a.1] conns=[wye,wye] kvs=[7.2,0.24] kvas=[15,15] taps=[1,1] wdg=1 %r=0.52 rdcohms=15.27552 wdg=2 %r=0.52 rdcohms=0.0169728 %loadloss=1.04 %noloadloss=0.34 xhl=1.5 normhkva=15 emerghkva=21
new object=transformer.b19071-1c phases=1 buses=[b19071.3,x_b19071-c.3] conns=[wye,wye] kvs=[7.2,0.24] kvas=[15,15] taps=[1,1] wdg=1 %r=0.52 rdcohms=15.27552 wdg=2 %r=0.52 rdcohms=0.0169728 %loadloss=1.04 %noloadloss=0.34 xhl=1.5 normhkva=15 emerghkva=21
new object=transformer.b39820-1c phases=1 buses=[b39820.3,x_b39820-c.3] conns=[wye,wye] kvs=[7.2,0.24] kvas=[25,25] taps=[1,1] wdg=1 %r=0.38195 rdcohms=6.732098 wdg=2 %r=0.38195 rdcohms=0.007480109 %loadloss=0.7639 %noloadloss=0.0851 xhl=2.1 normhkva=25 emerghkva=35
new object=transformer.5857829226-1c phases=1 buses=[5857829226.3,x_5857829226-c.3] conns=[wye,wye] kvs=[7.2,0.24] kvas=[25,25] taps=[1,1] wdg=1 %r=0.38195 rdcohms=6.732098 wdg=2 %r=0.38195 rdcohms=0.007480109 %loadloss=0.7639 %noloadloss=0.0851 xhl=2.1 normhkva=25 emerghkva=35
new object=transformer.5920428274-1c phases=1 buses=[5920428274.3,x_5920428274-c.3] conns=[wye,wye] kvs=[7.2,0.24] kvas=[25,25] taps=[1,1] wdg=1 %r=0.38195 rdcohms=6.732098 wdg=2 %r=0.38195 rdcohms=0.007480109 %loadloss=0.7639 %noloadloss=0.0851 xhl=2.1 normhkva=25 emerghkva=35
new object=transformer.b24281-1c phases=1 buses=[b24281.3,x_b24281-c.3] conns=[wye,wye] kvs=[7.2,0.24] kvas=[15,15] taps=[1,1] wdg=1 %r=0.52 rdcohms=15.27552 wdg=2 %r=0.52 rdcohms=0.0169728 %loadloss=1.04 %noloadloss=0.34 xhl=1.5 normhkva=15 emerghkva=21
new object=transformer.b18912-1b phases=1 buses=[b18912.2,x_b18912-b.2] conns=[wye,wye] kvs=[7.2,0.24] kvas=[25,25] taps=[1,1] wdg=1 %r=0.38195 rdcohms=6.732098 wdg=2 %r=0.38195 rdcohms=0.007480109 %loadloss=0.7639 %noloadloss=0.0851 xhl=2.1 normhkva=25 emerghkva=35
new object=transformer.b60940-1c phases=1 buses=[b60940.3,x_b60940-c.3] conns=[wye,wye] kvs=[7.2,0.24] kvas=[25,25] taps=[1,1] wdg=1 %r=0.38195 rdcohms=6.732098 wdg=2 %r=0.38195 rdcohms=0.007480109 %loadloss=0.7639 %noloadloss=0.0851 xhl=2.1 normhkva=25 emerghkva=35
new object=transformer.b4579-1a phases=1 buses=[b4579.1,x_b4579-a.1] conns=[wye,wye] kvs=[7.2,0.24] kvas=[20,20] taps=[1,1] wdg=1 %r=0.52 rdcohms=11.45664 wdg=2 %r=0.52 rdcohms=0.0127296 %loadloss=1.04 %noloadloss=0.34 xhl=1.5 normhkva=20 emerghkva=28
new object=transformer.b4579-1c phases=1 buses=[b4579.3,x_b4579-c.3] conns=[wye,wye] kvs=[7.2,0.24] kvas=[20,20] taps=[1,1] wdg=1 %r=0.52 rdcohms=11.45664 wdg=2 %r=0.52 rdcohms=0.0127296 %loadloss=1.04 %noloadloss=0.34 xhl=1.5 normhkva=20 emerghkva=28
new object=transformer.b4994-1a phases=1 buses=[b4994.1,x_b4994-a.1] conns=[wye,wye] kvs=[7.2,0.24] kvas=[15,15] taps=[1,1] wdg=1 %r=0.52 rdcohms=15.27552 wdg=2 %r=0.52 rdcohms=0.0169728 %loadloss=1.04 %noloadloss=0.34 xhl=1.5 normhkva=15 emerghkva=21
new object=transformer.b61632-1a phases=1 buses=[b61632.1,x_b61632-a.1] conns=[wye,wye] kvs=[7.2,0.24] kvas=[100,100] taps=[1,1] wdg=1 %r=0.36185 rdcohms=1.594456 wdg=2 %r=0.36185 rdcohms=0.001771618 %loadloss=0.7237 %noloadloss=0.1524 xhl=2.1557 normhkva=100 emerghkva=140
new object=transformer.b61632-1b phases=1 buses=[b61632.2,x_b61632-b.2] conns=[wye,wye] kvs=[7.2,0.24] kvas=[100,100] taps=[1,1] wdg=1 %r=0.36185 rdcohms=1.594456 wdg=2 %r=0.36185 rdcohms=0.001771618 %loadloss=0.7237 %noloadloss=0.1524 xhl=2.1557 normhkva=100 emerghkva=140
new object=transformer.b61632-1c phases=1 buses=[b61632.3,x_b61632-c.3] conns=[wye,wye] kvs=[7.2,0.24] kvas=[100,100] taps=[1,1] wdg=1 %r=0.36185 rdcohms=1.594456 wdg=2 %r=0.36185 rdcohms=0.001771618 %loadloss=0.7237 %noloadloss=0.1524 xhl=2.1557 normhkva=100 emerghkva=140
new object=transformer.b18886-1b phases=1 buses=[b18886.2,x_b18886-b.2] conns=[wye,wye] kvs=[7.2,0.24] kvas=[15,15] taps=[1,1] wdg=1 %r=0.52 rdcohms=15.27552 wdg=2 %r=0.52 rdcohms=0.0169728 %loadloss=1.04 %noloadloss=0.34 xhl=1.5 normhkva=15 emerghkva=21
new object=transformer.5979429639-1b phases=1 buses=[5979429639.2,x_5979429639-b.2] conns=[wye,wye] kvs=[7.2,0.24] kvas=[25,25] taps=[1,1] wdg=1 %r=0.38195 rdcohms=6.732098 wdg=2 %r=0.38195 rdcohms=0.007480109 %loadloss=0.7639 %noloadloss=0.0851 xhl=2.1 normhkva=25 emerghkva=35
new object=transformer.b18941-1a phases=1 buses=[b18941.1,x_b18941-a.1] conns=[wye,wye] kvs=[7.2,0.24] kvas=[38,38] taps=[1,1] wdg=1 %r=0.36105 rdcohms=4.18666 wdg=2 %r=0.36105 rdcohms=0.004651844 %loadloss=0.7221 %noloadloss=0.2423 xhl=1.5158 normhkva=37.5 emerghkva=53.2
new object=transformer.g40138-1c phases=1 buses=[g40138.3,x_g40138-c.3] conns=[wye,wye] kvs=[7.2,0.24] kvas=[15,15] taps=[1,1] wdg=1 %r=0.52 rdcohms=15.27552 wdg=2 %r=0.52 rdcohms=0.0169728 %loadloss=1.04 %noloadloss=0.34 xhl=1.5 normhkva=15 emerghkva=21
new object=transformer.b18855-1b phases=1 buses=[b18855.2,x_b18855-b.2] conns=[wye,wye] kvs=[7.2,0.24] kvas=[15,15] taps=[1,1] wdg=1 %r=0.52 rdcohms=15.27552 wdg=2 %r=0.52 rdcohms=0.0169728 %loadloss=1.04 %noloadloss=0.34 xhl=1.5 normhkva=15 emerghkva=21
new object=transformer.b4673-1a phases=1 buses=[b4673.1,x_b4673-a.1] conns=[wye,wye] kvs=[7.2,0.24] kvas=[25,25] taps=[1,1] wdg=1 %r=0.38195 rdcohms=6.732098 wdg=2 %r=0.38195 rdcohms=0.007480109 %loadloss=0.7639 %noloadloss=0.0851 xhl=2.1 normhkva=25 emerghkva=35
new object=transformer.b19064-1c phases=1 buses=[b19064.3,x_b19064-c.3] conns=[wye,wye] kvs=[7.2,0.24] kvas=[15,15] taps=[1,1] wdg=1 %r=0.52 rdcohms=15.27552 wdg=2 %r=0.52 rdcohms=0.0169728 %loadloss=1.04 %noloadloss=0.34 xhl=1.5 normhkva=15 emerghkva=21
new object=transformer.b45445-1c phases=1 buses=[b45445.3,x_b45445-c.3] conns=[wye,wye] kvs=[7.2,0.24] kvas=[10,10] taps=[1,1] wdg=1 %r=0.511 rdcohms=22.5167 wdg=2 %r=0.511 rdcohms=0.02501856 %loadloss=1.022 %noloadloss=0.3221 xhl=1.707 normhkva=10 emerghkva=14
new object=transformer.b57500-1b phases=1 buses=[b57500.2,x_b57500-b.2] conns=[wye,wye] kvs=[7.2,0.24] kvas=[15,15] taps=[1,1] wdg=1 %r=0.52 rdcohms=15.27552 wdg=2 %r=0.52 rdcohms=0.0169728 %loadloss=1.04 %noloadloss=0.34 xhl=1.5 normhkva=15 emerghkva=21
new object=transformer.b14324-1a phases=1 buses=[b14324.1,x_b14324-a.1] conns=[wye,wye] kvs=[7.2,0.24] kvas=[15,15] taps=[1,1] wdg=1 %r=0.52 rdcohms=15.27552 wdg=2 %r=0.52 rdcohms=0.0169728 %loadloss=1.04 %noloadloss=0.34 xhl=1.5 normhkva=15 emerghkva=21
new object=transformer.b60757-1c phases=1 buses=[b60757.3,x_b60757-c.3] conns=[wye,wye] kvs=[7.2,0.24] kvas=[15,15] taps=[1,1] wdg=1 %r=0.52 rdcohms=15.27552 wdg=2 %r=0.52 rdcohms=0.0169728 %loadloss=1.04 %noloadloss=0.34 xhl=1.5 normhkva=15 emerghkva=21
new object=transformer.g34723-1c phases=1 buses=[g34723.3,x_g34723-c.3] conns=[wye,wye] kvs=[7.2,0.24] kvas=[15,15] taps=[1,1] wdg=1 %r=0.52 rdcohms=15.27552 wdg=2 %r=0.52 rdcohms=0.0169728 %loadloss=1.04 %noloadloss=0.34 xhl=1.5 normhkva=15 emerghkva=21
new object=transformer.b22571-1c phases=1 buses=[b22571.3,x_b22571-c.3] conns=[wye,wye] kvs=[7.2,0.24] kvas=[15,15] taps=[1,1] wdg=1 %r=0.52 rdcohms=15.27552 wdg=2 %r=0.52 rdcohms=0.0169728 %loadloss=1.04 %noloadloss=0.34 xhl=1.5 normhkva=15 emerghkva=21
new object=transformer.b13555-1a phases=1 buses=[b13555.1,x_b13555-a.1] conns=[wye,wye] kvs=[7.2,0.24] kvas=[25,25] taps=[1,1] wdg=1 %r=0.38195 rdcohms=6.732098 wdg=2 %r=0.38195 rdcohms=0.007480109 %loadloss=0.7639 %noloadloss=0.0851 xhl=2.1 normhkva=25 emerghkva=35
new object=transformer.b23889-1c phases=1 buses=[b23889.3,x_b23889-c.3] conns=[wye,wye] kvs=[7.2,0.24] kvas=[15,15] taps=[1,1] wdg=1 %r=0.52 rdcohms=15.27552 wdg=2 %r=0.52 rdcohms=0.0169728 %loadloss=1.04 %noloadloss=0.34 xhl=1.5 normhkva=15 emerghkva=21
new object=transformer.b43440-1b phases=1 buses=[b43440.2,x_b43440-b.2] conns=[wye,wye] kvs=[7.2,0.24] kvas=[38,38] taps=[1,1] wdg=1 %r=0.36105 rdcohms=4.18666 wdg=2 %r=0.36105 rdcohms=0.004651844 %loadloss=0.7221 %noloadloss=0.2423 xhl=1.5158 normhkva=37.5 emerghkva=53.2
new object=transformer.5904428572-1b phases=1 buses=[5904428572.2,x_5904428572-b.2] conns=[wye,wye] kvs=[7.2,0.24] kvas=[15,15] taps=[1,1] wdg=1 %r=0.52 rdcohms=15.27552 wdg=2 %r=0.52 rdcohms=0.0169728 %loadloss=1.04 %noloadloss=0.34 xhl=1.5 normhkva=15 emerghkva=21
new object=transformer.b41085-1b phases=1 buses=[b41085.2,x_b41085-b.2] conns=[wye,wye] kvs=[7.2,0.24] kvas=[25,25] taps=[1,1] wdg=1 %r=0.38195 rdcohms=6.732098 wdg=2 %r=0.38195 rdcohms=0.007480109 %loadloss=0.7639 %noloadloss=0.0851 xhl=2.1 normhkva=25 emerghkva=35
new object=transformer.b41085-1c phases=1 buses=[b41085.3,x_b41085-c.3] conns=[wye,wye] kvs=[7.2,0.24] kvas=[25,25] taps=[1,1] wdg=1 %r=0.38195 rdcohms=6.732098 wdg=2 %r=0.38195 rdcohms=0.007480109 %loadloss=0.7639 %noloadloss=0.0851 xhl=2.1 normhkva=25 emerghkva=35
new object=transformer.b19021-1a phases=1 buses=[b19021.1,x_b19021-a.1] conns=[wye,wye] kvs=[7.2,0.24] kvas=[15,15] taps=[1,1] wdg=1 %r=0.52 rdcohms=15.27552 wdg=2 %r=0.52 rdcohms=0.0169728 %loadloss=1.04 %noloadloss=0.34 xhl=1.5 normhkva=15 emerghkva=21
new object=transformer.6053129341-1b phases=1 buses=[6053129341.2,x_6053129341-b.2] conns=[wye,wye] kvs=[7.2,0.24] kvas=[25,25] taps=[1,1] wdg=1 %r=0.38195 rdcohms=6.732098 wdg=2 %r=0.38195 rdcohms=0.007480109 %loadloss=0.7639 %noloadloss=0.0851 xhl=2.1 normhkva=25 emerghkva=35
new object=transformer.6059129162-1c phases=1 buses=[6059129162.3,x_6059129162-c.3] conns=[wye,wye] kvs=[7.2,0.24] kvas=[25,25] taps=[1,1] wdg=1 %r=0.38195 rdcohms=6.732098 wdg=2 %r=0.38195 rdcohms=0.007480109 %loadloss=0.7639 %noloadloss=0.0851 xhl=2.1 normhkva=25 emerghkva=35
new object=transformer.b60934-1c phases=1 buses=[b60934.3,x_b60934-c.3] conns=[wye,wye] kvs=[7.2,0.24] kvas=[15,15] taps=[1,1] wdg=1 %r=0.52 rdcohms=15.27552 wdg=2 %r=0.52 rdcohms=0.0169728 %loadloss=1.04 %noloadloss=0.34 xhl=1.5 normhkva=15 emerghkva=21
new object=transformer.5993629800-1b phases=1 buses=[5993629800.2,x_5993629800-b.2] conns=[wye,wye] kvs=[7.2,0.24] kvas=[25,25] taps=[1,1] wdg=1 %r=0.38195 rdcohms=6.732098 wdg=2 %r=0.38195 rdcohms=0.007480109 %loadloss=0.7639 %noloadloss=0.0851 xhl=2.1 normhkva=25 emerghkva=35
new object=transformer.b63785-1c phases=1 buses=[b63785.3,x_b63785-c.3] conns=[wye,wye] kvs=[7.2,0.24] kvas=[15,15] taps=[1,1] wdg=1 %r=0.52 rdcohms=15.27552 wdg=2 %r=0.52 rdcohms=0.0169728 %loadloss=1.04 %noloadloss=0.34 xhl=1.5 normhkva=15 emerghkva=21
new object=transformer.b59172-1b phases=1 buses=[b59172.2,x_b59172-b.2] conns=[wye,wye] kvs=[7.2,0.24] kvas=[25,25] taps=[1,1] wdg=1 %r=0.38195 rdcohms=6.732098 wdg=2 %r=0.38195 rdcohms=0.007480109 %loadloss=0.7639 %noloadloss=0.0851 xhl=2.1 normhkva=25 emerghkva=35
new object=transformer.5962929303-1b phases=1 buses=[5962929303.2,x_5962929303-b.2] conns=[wye,wye] kvs=[7.2,0.24] kvas=[25,25] taps=[1,1] wdg=1 %r=0.38195 rdcohms=6.732098 wdg=2 %r=0.38195 rdcohms=0.007480109 %loadloss=0.7639 %noloadloss=0.0851 xhl=2.1 normhkva=25 emerghkva=35
new object=transformer.b4826-1b phases=1 buses=[b4826.2,x_b4826-b.2] conns=[wye,wye] kvs=[7.2,0.24] kvas=[15,15] taps=[1,1] wdg=1 %r=0.52 rdcohms=15.27552 wdg=2 %r=0.52 rdcohms=0.0169728 %loadloss=1.04 %noloadloss=0.34 xhl=1.5 normhkva=15 emerghkva=21
new object=transformer.b4826-1c phases=1 buses=[b4826.3,x_b4826-c.3] conns=[wye,wye] kvs=[7.2,0.24] kvas=[15,15] taps=[1,1] wdg=1 %r=0.52 rdcohms=15.27552 wdg=2 %r=0.52 rdcohms=0.0169728 %loadloss=1.04 %noloadloss=0.34 xhl=1.5 normhkva=15 emerghkva=21
new object=transformer.b28551-1b phases=1 buses=[b28551.2,x_b28551-b.2] conns=[wye,wye] kvs=[7.2,0.24] kvas=[10,10] taps=[1,1] wdg=1 %r=0.511 rdcohms=22.5167 wdg=2 %r=0.511 rdcohms=0.02501856 %loadloss=1.022 %noloadloss=0.3221 xhl=1.707 normhkva=10 emerghkva=14
new object=transformer.b28551-1c phases=1 buses=[b28551.3,x_b28551-c.3] conns=[wye,wye] kvs=[7.2,0.24] kvas=[10,10] taps=[1,1] wdg=1 %r=0.511 rdcohms=22.5167 wdg=2 %r=0.511 rdcohms=0.02501856 %loadloss=1.022 %noloadloss=0.3221 xhl=1.707 normhkva=10 emerghkva=14
new object=transformer.b4795-1c phases=1 buses=[b4795.3,x_b4795-c.3] conns=[wye,wye] kvs=[7.2,0.24] kvas=[25,25] taps=[1,1] wdg=1 %r=0.38195 rdcohms=6.732098 wdg=2 %r=0.38195 rdcohms=0.007480109 %loadloss=0.7639 %noloadloss=0.0851 xhl=2.1 normhkva=25 emerghkva=35
new object=transformer.b5186-1b phases=1 buses=[b5186.2,x_b5186-b.2] conns=[wye,wye] kvs=[7.2,0.24] kvas=[15,15] taps=[1,1] wdg=1 %r=0.52 rdcohms=15.27552 wdg=2 %r=0.52 rdcohms=0.0169728 %loadloss=1.04 %noloadloss=0.34 xhl=1.5 normhkva=15 emerghkva=21
new object=transformer.b5193-1b phases=1 buses=[b5193.2,x_b5193-b.2] conns=[wye,wye] kvs=[7.2,0.24] kvas=[15,15] taps=[1,1] wdg=1 %r=0.52 rdcohms=15.27552 wdg=2 %r=0.52 rdcohms=0.0169728 %loadloss=1.04 %noloadloss=0.34 xhl=1.5 normhkva=15 emerghkva=21
new object=transformer.b41861-1b phases=1 buses=[b41861.2,x_b41861-b.2] conns=[wye,wye] kvs=[7.2,0.24] kvas=[25,25] taps=[1,1] wdg=1 %r=0.38195 rdcohms=6.732098 wdg=2 %r=0.38195 rdcohms=0.007480109 %loadloss=0.7639 %noloadloss=0.0851 xhl=2.1 normhkva=25 emerghkva=35
new object=transformer.b56325-1a phases=1 buses=[b56325.1,x_b56325-a.1] conns=[wye,wye] kvs=[7.2,0.24] kvas=[167,167] taps=[1,1] wdg=1 %r=0.299 rdcohms=0.7889303 wdg=2 %r=0.299 rdcohms=0.0008765892 %loadloss=0.598 %noloadloss=0.2 xhl=1.5 normhkva=167 emerghkva=233.8
new object=transformer.b56325-1b phases=1 buses=[b56325.2,x_b56325-b.2] conns=[wye,wye] kvs=[7.2,0.24] kvas=[167,167] taps=[1,1] wdg=1 %r=0.299 rdcohms=0.7889303 wdg=2 %r=0.299 rdcohms=0.0008765892 %loadloss=0.598 %noloadloss=0.2 xhl=1.5 normhkva=167 emerghkva=233.8
new object=transformer.b56325-1c phases=1 buses=[b56325.3,x_b56325-c.3] conns=[wye,wye] kvs=[7.2,0.24] kvas=[167,167] taps=[1,1] wdg=1 %r=0.299 rdcohms=0.7889303 wdg=2 %r=0.299 rdcohms=0.0008765892 %loadloss=0.598 %noloadloss=0.2 xhl=1.5 normhkva=167 emerghkva=233.8
new object=transformer.g42979-1c phases=1 buses=[g42979.3,x_g42979-c.3] conns=[wye,wye] kvs=[7.2,0.24] kvas=[25,25] taps=[1,1] wdg=1 %r=0.38195 rdcohms=6.732098 wdg=2 %r=0.38195 rdcohms=0.007480109 %loadloss=0.7639 %noloadloss=0.0851 xhl=2.1 normhkva=25 emerghkva=35
new object=transformer.5839828569-1a phases=1 buses=[5839828569.1,x_5839828569-a.1] conns=[wye,wye] kvs=[7.2,0.24] kvas=[15,15] taps=[1,1] wdg=1 %r=0.52 rdcohms=15.27552 wdg=2 %r=0.52 rdcohms=0.0169728 %loadloss=1.04 %noloadloss=0.34 xhl=1.5 normhkva=15 emerghkva=21
new object=transformer.5839828569-1b phases=1 buses=[5839828569.2,x_5839828569-b.2] conns=[wye,wye] kvs=[7.2,0.24] kvas=[15,15] taps=[1,1] wdg=1 %r=0.52 rdcohms=15.27552 wdg=2 %r=0.52 rdcohms=0.0169728 %loadloss=1.04 %noloadloss=0.34 xhl=1.5 normhkva=15 emerghkva=21
new object=transformer.5839828569-1c phases=1 buses=[5839828569.3,x_5839828569-c.3] conns=[wye,wye] kvs=[7.2,0.24] kvas=[15,15] taps=[1,1] wdg=1 %r=0.52 rdcohms=15.27552 wdg=2 %r=0.52 rdcohms=0.0169728 %loadloss=1.04 %noloadloss=0.34 xhl=1.5 normhkva=15 emerghkva=21
new object=transformer.b60930-1c phases=1 buses=[b60930.3,x_b60930-c.3] conns=[wye,wye] kvs=[7.2,0.24] kvas=[25,25] taps=[1,1] wdg=1 %r=0.38195 rdcohms=6.732098 wdg=2 %r=0.38195 rdcohms=0.007480109 %loadloss=0.7639 %noloadloss=0.0851 xhl=2.1 normhkva=25 emerghkva=35
new object=transformer.b58961-1a phases=1 buses=[b58961.1,x_b58961-a.1] conns=[wye,wye] kvs=[7.2,0.24] kvas=[15,15] taps=[1,1] wdg=1 %r=0.52 rdcohms=15.27552 wdg=2 %r=0.52 rdcohms=0.0169728 %loadloss=1.04 %noloadloss=0.34 xhl=1.5 normhkva=15 emerghkva=21
new object=transformer.b61236-1c phases=1 buses=[b61236.3,x_b61236-c.3] conns=[wye,wye] kvs=[7.2,0.24] kvas=[15,15] taps=[1,1] wdg=1 %r=0.52 rdcohms=15.27552 wdg=2 %r=0.52 rdcohms=0.0169728 %loadloss=1.04 %noloadloss=0.34 xhl=1.5 normhkva=15 emerghkva=21
new object=transformer.b18999-1c phases=1 buses=[b18999.3,x_b18999-c.3] conns=[wye,wye] kvs=[7.2,0.24] kvas=[15,15] taps=[1,1] wdg=1 %r=0.52 rdcohms=15.27552 wdg=2 %r=0.52 rdcohms=0.0169728 %loadloss=1.04 %noloadloss=0.34 xhl=1.5 normhkva=15 emerghkva=21
new object=transformer.b4811-1a phases=1 buses=[b4811.1,x_b4811-a.1] conns=[wye,wye] kvs=[7.2,0.24] kvas=[32,32] taps=[1,1] wdg=1 %r=0.38195 rdcohms=5.259451 wdg=2 %r=0.38195 rdcohms=0.005843835 %loadloss=0.7639 %noloadloss=0.0851 xhl=2.1 normhkva=32.5 emerghkva=44.8
new object=transformer.b4811-1b phases=1 buses=[b4811.2,x_b4811-b.2] conns=[wye,wye] kvs=[7.2,0.24] kvas=[32,32] taps=[1,1] wdg=1 %r=0.38195 rdcohms=5.259451 wdg=2 %r=0.38195 rdcohms=0.005843835 %loadloss=0.7639 %noloadloss=0.0851 xhl=2.1 normhkva=32.5 emerghkva=44.8
new object=transformer.b37083-1b phases=1 buses=[b37083.2,x_b37083-b.2] conns=[wye,wye] kvs=[7.2,0.24] kvas=[25,25] taps=[1,1] wdg=1 %r=0.38195 rdcohms=6.732098 wdg=2 %r=0.38195 rdcohms=0.007480109 %loadloss=0.7639 %noloadloss=0.0851 xhl=2.1 normhkva=25 emerghkva=35
new object=transformer.b4965-1b phases=1 buses=[b4965.2,x_b4965-b.2] conns=[wye,wye] kvs=[7.2,0.24] kvas=[50,50] taps=[1,1] wdg=1 %r=0.369 rdcohms=3.251923 wdg=2 %r=0.369 rdcohms=0.003613248 %loadloss=0.738 %noloadloss=0.1987 xhl=1.7532 normhkva=50 emerghkva=70
new object=transformer.b41906-1a phases=1 buses=[b41906.1,x_b41906-a.1] conns=[wye,wye] kvs=[7.2,0.24] kvas=[10,10] taps=[1,1] wdg=1 %r=0.511 rdcohms=22.5167 wdg=2 %r=0.511 rdcohms=0.02501856 %loadloss=1.022 %noloadloss=0.3221 xhl=1.707 normhkva=10 emerghkva=14
new object=transformer.b24506-1c phases=1 buses=[b24506.3,x_b24506-c.3] conns=[wye,wye] kvs=[7.2,0.24] kvas=[15,15] taps=[1,1] wdg=1 %r=0.52 rdcohms=15.27552 wdg=2 %r=0.52 rdcohms=0.0169728 %loadloss=1.04 %noloadloss=0.34 xhl=1.5 normhkva=15 emerghkva=21
new object=transformer.b4729-1c phases=1 buses=[b4729.3,x_b4729-c.3] conns=[wye,wye] kvs=[7.2,0.24] kvas=[25,25] taps=[1,1] wdg=1 %r=0.38195 rdcohms=6.732098 wdg=2 %r=0.38195 rdcohms=0.007480109 %loadloss=0.7639 %noloadloss=0.0851 xhl=2.1 normhkva=25 emerghkva=35
new object=transformer.b41547-1b phases=1 buses=[b41547.2,x_b41547-b.2] conns=[wye,wye] kvs=[7.2,0.24] kvas=[15,15] taps=[1,1] wdg=1 %r=0.52 rdcohms=15.27552 wdg=2 %r=0.52 rdcohms=0.0169728 %loadloss=1.04 %noloadloss=0.34 xhl=1.5 normhkva=15 emerghkva=21
new object=transformer.b4586-1a phases=1 buses=[b4586.1,x_b4586-a.1] conns=[wye,wye] kvs=[7.2,0.24] kvas=[25,25] taps=[1,1] wdg=1 %r=0.38195 rdcohms=6.732098 wdg=2 %r=0.38195 rdcohms=0.007480109 %loadloss=0.7639 %noloadloss=0.0851 xhl=2.1 normhkva=25 emerghkva=35
new object=transformer.b61759-1c phases=1 buses=[b61759.3,x_b61759-c.3] conns=[wye,wye] kvs=[7.2,0.24] kvas=[25,25] taps=[1,1] wdg=1 %r=0.38195 rdcohms=6.732098 wdg=2 %r=0.38195 rdcohms=0.007480109 %loadloss=0.7639 %noloadloss=0.0851 xhl=2.1 normhkva=25 emerghkva=35
new object=transformer.b18914-1a phases=1 buses=[b18914.1,x_b18914-a.1] conns=[wye,wye] kvs=[7.2,0.24] kvas=[25,25] taps=[1,1] wdg=1 %r=0.38195 rdcohms=6.732098 wdg=2 %r=0.38195 rdcohms=0.007480109 %loadloss=0.7639 %noloadloss=0.0851 xhl=2.1 normhkva=25 emerghkva=35
new object=transformer.b16658-1a phases=1 buses=[b16658.1,x_b16658-a.1] conns=[wye,wye] kvs=[7.2,0.24] kvas=[15,15] taps=[1,1] wdg=1 %r=0.52 rdcohms=15.27552 wdg=2 %r=0.52 rdcohms=0.0169728 %loadloss=1.04 %noloadloss=0.34 xhl=1.5 normhkva=15 emerghkva=21
new object=transformer.b27838-1c phases=1 buses=[b27838.3,x_b27838-c.3] conns=[wye,wye] kvs=[7.2,0.24] kvas=[25,25] taps=[1,1] wdg=1 %r=0.38195 rdcohms=6.732098 wdg=2 %r=0.38195 rdcohms=0.007480109 %loadloss=0.7639 %noloadloss=0.0851 xhl=2.1 normhkva=25 emerghkva=35
new object=transformer.b12329-1a phases=1 buses=[b12329.1,x_b12329-a.1] conns=[wye,wye] kvs=[7.2,0.24] kvas=[10,10] taps=[1,1] wdg=1 %r=0.511 rdcohms=22.5167 wdg=2 %r=0.511 rdcohms=0.02501856 %loadloss=1.022 %noloadloss=0.3221 xhl=1.707 normhkva=10 emerghkva=14
new object=transformer.b4802-1a phases=1 buses=[b4802.1,x_b4802-a.1] conns=[wye,wye] kvs=[7.2,0.24] kvas=[25,25] taps=[1,1] wdg=1 %r=0.38195 rdcohms=6.732098 wdg=2 %r=0.38195 rdcohms=0.007480109 %loadloss=0.7639 %noloadloss=0.0851 xhl=2.1 normhkva=25 emerghkva=35
new object=transformer.6084829720-1a phases=1 buses=[6084829720.1,x_6084829720-a.1] conns=[wye,wye] kvs=[7.2,0.24] kvas=[5,5] taps=[1,1] wdg=1 %r=0.511 rdcohms=45.03341 wdg=2 %r=0.511 rdcohms=0.05003712 %loadloss=1.022 %noloadloss=0.3221 xhl=1.707 normhkva=5 emerghkva=7
new object=transformer.b52170-1c phases=1 buses=[b52170.3,x_b52170-c.3] conns=[wye,wye] kvs=[7.2,0.24] kvas=[15,15] taps=[1,1] wdg=1 %r=0.52 rdcohms=15.27552 wdg=2 %r=0.52 rdcohms=0.0169728 %loadloss=1.04 %noloadloss=0.34 xhl=1.5 normhkva=15 emerghkva=21
new object=transformer.b15828-1c phases=1 buses=[b15828.3,x_b15828-c.3] conns=[wye,wye] kvs=[7.2,0.24] kvas=[15,15] taps=[1,1] wdg=1 %r=0.52 rdcohms=15.27552 wdg=2 %r=0.52 rdcohms=0.0169728 %loadloss=1.04 %noloadloss=0.34 xhl=1.5 normhkva=15 emerghkva=21
new object=transformer.b60889-1b phases=1 buses=[b60889.2,x_b60889-b.2] conns=[wye,wye] kvs=[7.2,0.24] kvas=[25,25] taps=[1,1] wdg=1 %r=0.38195 rdcohms=6.732098 wdg=2 %r=0.38195 rdcohms=0.007480109 %loadloss=0.7639 %noloadloss=0.0851 xhl=2.1 normhkva=25 emerghkva=35
new object=transformer.b19066-1c phases=1 buses=[b19066.3,x_b19066-c.3] conns=[wye,wye] kvs=[7.2,0.24] kvas=[15,15] taps=[1,1] wdg=1 %r=0.52 rdcohms=15.27552 wdg=2 %r=0.52 rdcohms=0.0169728 %loadloss=1.04 %noloadloss=0.34 xhl=1.5 normhkva=15 emerghkva=21
new object=transformer.b11365-1b phases=1 buses=[b11365.2,x_b11365-b.2] conns=[wye,wye] kvs=[7.2,0.24] kvas=[20,20] taps=[1,1] wdg=1 %r=0.52 rdcohms=11.45664 wdg=2 %r=0.52 rdcohms=0.0127296 %loadloss=1.04 %noloadloss=0.34 xhl=1.5 normhkva=20 emerghkva=28
new object=transformer.b11365-1c phases=1 buses=[b11365.3,x_b11365-c.3] conns=[wye,wye] kvs=[7.2,0.24] kvas=[20,20] taps=[1,1] wdg=1 %r=0.52 rdcohms=11.45664 wdg=2 %r=0.52 rdcohms=0.0127296 %loadloss=1.04 %noloadloss=0.34 xhl=1.5 normhkva=20 emerghkva=28
new object=transformer.b13657-1c phases=1 buses=[b13657.3,x_b13657-c.3] conns=[wye,wye] kvs=[7.2,0.24] kvas=[38,38] taps=[1,1] wdg=1 %r=0.36105 rdcohms=4.18666 wdg=2 %r=0.36105 rdcohms=0.004651844 %loadloss=0.7221 %noloadloss=0.2423 xhl=1.5158 normhkva=37.5 emerghkva=53.2
new object=transformer.b24275-1c phases=1 buses=[b24275.3,x_b24275-c.3] conns=[wye,wye] kvs=[7.2,0.24] kvas=[25,25] taps=[1,1] wdg=1 %r=0.38195 rdcohms=6.732098 wdg=2 %r=0.38195 rdcohms=0.007480109 %loadloss=0.7639 %noloadloss=0.0851 xhl=2.1 normhkva=25 emerghkva=35
new object=transformer.b5213-1c phases=1 buses=[b5213.3,x_b5213-c.3] conns=[wye,wye] kvs=[7.2,0.24] kvas=[15,15] taps=[1,1] wdg=1 %r=0.52 rdcohms=15.27552 wdg=2 %r=0.52 rdcohms=0.0169728 %loadloss=1.04 %noloadloss=0.34 xhl=1.5 normhkva=15 emerghkva=21
new object=transformer.b63378-1c phases=1 buses=[b63378.3,x_b63378-c.3] conns=[wye,wye] kvs=[7.2,0.24] kvas=[15,15] taps=[1,1] wdg=1 %r=0.52 rdcohms=15.27552 wdg=2 %r=0.52 rdcohms=0.0169728 %loadloss=1.04 %noloadloss=0.34 xhl=1.5 normhkva=15 emerghkva=21
new object=transformer.b29964-1b phases=1 buses=[b29964.2,x_b29964-b.2] conns=[wye,wye] kvs=[7.2,0.24] kvas=[5,5] taps=[1,1] wdg=1 %r=0.511 rdcohms=45.03341 wdg=2 %r=0.511 rdcohms=0.05003712 %loadloss=1.022 %noloadloss=0.3221 xhl=1.707 normhkva=5 emerghkva=7
new object=transformer.5911428269-1c phases=1 buses=[5911428269.3,x_5911428269-c.3] conns=[wye,wye] kvs=[7.2,0.24] kvas=[25,25] taps=[1,1] wdg=1 %r=0.38195 rdcohms=6.732098 wdg=2 %r=0.38195 rdcohms=0.007480109 %loadloss=0.7639 %noloadloss=0.0851 xhl=2.1 normhkva=25 emerghkva=35
new object=transformer.b61623-1c phases=1 buses=[b61623.3,x_b61623-c.3] conns=[wye,wye] kvs=[7.2,0.24] kvas=[15,15] taps=[1,1] wdg=1 %r=0.52 rdcohms=15.27552 wdg=2 %r=0.52 rdcohms=0.0169728 %loadloss=1.04 %noloadloss=0.34 xhl=1.5 normhkva=15 emerghkva=21
new object=transformer.5976529574-1b phases=1 buses=[5976529574.2,x_5976529574-b.2] conns=[wye,wye] kvs=[7.2,0.24] kvas=[25,25] taps=[1,1] wdg=1 %r=0.38195 rdcohms=6.732098 wdg=2 %r=0.38195 rdcohms=0.007480109 %loadloss=0.7639 %noloadloss=0.0851 xhl=2.1 normhkva=25 emerghkva=35
new object=transformer.b66452-1a phases=1 buses=[b66452.1,x_b66452-a.1] conns=[wye,wye] kvs=[7.2,0.24] kvas=[25,25] taps=[1,1] wdg=1 %r=0.38195 rdcohms=6.732098 wdg=2 %r=0.38195 rdcohms=0.007480109 %loadloss=0.7639 %noloadloss=0.0851 xhl=2.1 normhkva=25 emerghkva=35
new object=transformer.b29181-1a phases=1 buses=[b29181.1,x_b29181-a.1] conns=[wye,wye] kvs=[7.2,0.24] kvas=[15,15] taps=[1,1] wdg=1 %r=0.52 rdcohms=15.27552 wdg=2 %r=0.52 rdcohms=0.0169728 %loadloss=1.04 %noloadloss=0.34 xhl=1.5 normhkva=15 emerghkva=21
new object=transformer.b59935-1a phases=1 buses=[b59935.1,x_b59935-a.1] conns=[wye,wye] kvs=[7.2,0.24] kvas=[15,15] taps=[1,1] wdg=1 %r=0.52 rdcohms=15.27552 wdg=2 %r=0.52 rdcohms=0.0169728 %loadloss=1.04 %noloadloss=0.34 xhl=1.5 normhkva=15 emerghkva=21
new object=transformer.b14647-1b phases=1 buses=[b14647.2,x_b14647-b.2] conns=[wye,wye] kvs=[7.2,0.24] kvas=[25,25] taps=[1,1] wdg=1 %r=0.38195 rdcohms=6.732098 wdg=2 %r=0.38195 rdcohms=0.007480109 %loadloss=0.7639 %noloadloss=0.0851 xhl=2.1 normhkva=25 emerghkva=35
new object=transformer.b4668-1a phases=1 buses=[b4668.1,x_b4668-a.1] conns=[wye,wye] kvs=[7.2,0.24] kvas=[38,38] taps=[1,1] wdg=1 %r=0.36105 rdcohms=4.18666 wdg=2 %r=0.36105 rdcohms=0.004651844 %loadloss=0.7221 %noloadloss=0.2423 xhl=1.5158 normhkva=37.5 emerghkva=53.2
new object=transformer.b62918-1b phases=1 buses=[b62918.2,x_b62918-b.2] conns=[wye,wye] kvs=[7.2,0.24] kvas=[15,15] taps=[1,1] wdg=1 %r=0.52 rdcohms=15.27552 wdg=2 %r=0.52 rdcohms=0.0169728 %loadloss=1.04 %noloadloss=0.34 xhl=1.5 normhkva=15 emerghkva=21
new object=transformer.b17986-1c phases=1 buses=[b17986.3,x_b17986-c.3] conns=[wye,wye] kvs=[7.2,0.24] kvas=[15,15] taps=[1,1] wdg=1 %r=0.52 rdcohms=15.27552 wdg=2 %r=0.52 rdcohms=0.0169728 %loadloss=1.04 %noloadloss=0.34 xhl=1.5 normhkva=15 emerghkva=21
new object=transformer.b23862-1c phases=1 buses=[b23862.3,x_b23862-c.3] conns=[wye,wye] kvs=[7.2,0.24] kvas=[50,50] taps=[1,1] wdg=1 %r=0.369 rdcohms=3.251923 wdg=2 %r=0.369 rdcohms=0.003613248 %loadloss=0.738 %noloadloss=0.1987 xhl=1.7532 normhkva=50 emerghkva=70
new object=transformer.b13648-1c phases=1 buses=[b13648.3,x_b13648-c.3] conns=[wye,wye] kvs=[7.2,0.24] kvas=[38,38] taps=[1,1] wdg=1 %r=0.36105 rdcohms=4.18666 wdg=2 %r=0.36105 rdcohms=0.004651844 %loadloss=0.7221 %noloadloss=0.2423 xhl=1.5158 normhkva=37.5 emerghkva=53.2
new object=transformer.b13930-1c phases=1 buses=[b13930.3,x_b13930-c.3] conns=[wye,wye] kvs=[7.2,0.24] kvas=[38,38] taps=[1,1] wdg=1 %r=0.36105 rdcohms=4.18666 wdg=2 %r=0.36105 rdcohms=0.004651844 %loadloss=0.7221 %noloadloss=0.2423 xhl=1.5158 normhkva=37.5 emerghkva=53.2
new object=transformer.b43432-1a phases=1 buses=[b43432.1,x_b43432-a.1] conns=[wye,wye] kvs=[7.2,0.24] kvas=[15,15] taps=[1,1] wdg=1 %r=0.52 rdcohms=15.27552 wdg=2 %r=0.52 rdcohms=0.0169728 %loadloss=1.04 %noloadloss=0.34 xhl=1.5 normhkva=15 emerghkva=21
new object=transformer.b4828-1a phases=1 buses=[b4828.1,x_b4828-a.1] conns=[wye,wye] kvs=[7.2,0.24] kvas=[5,5] taps=[1,1] wdg=1 %r=0.511 rdcohms=45.03341 wdg=2 %r=0.511 rdcohms=0.05003712 %loadloss=1.022 %noloadloss=0.3221 xhl=1.707 normhkva=5 emerghkva=7
new object=transformer.g33899-1b phases=1 buses=[g33899.2,x_g33899-b.2] conns=[wye,wye] kvs=[7.2,0.24] kvas=[15,15] taps=[1,1] wdg=1 %r=0.52 rdcohms=15.27552 wdg=2 %r=0.52 rdcohms=0.0169728 %loadloss=1.04 %noloadloss=0.34 xhl=1.5 normhkva=15 emerghkva=21
new object=transformer.5869628416-1a phases=1 buses=[5869628416.1,x_5869628416-a.1] conns=[wye,wye] kvs=[7.2,0.24] kvas=[38,38] taps=[1,1] wdg=1 %r=0.36105 rdcohms=4.18666 wdg=2 %r=0.36105 rdcohms=0.004651844 %loadloss=0.7221 %noloadloss=0.2423 xhl=1.5158 normhkva=37.5 emerghkva=53.2
new object=transformer.5869628416-1b phases=1 buses=[5869628416.2,x_5869628416-b.2] conns=[wye,wye] kvs=[7.2,0.24] kvas=[38,38] taps=[1,1] wdg=1 %r=0.36105 rdcohms=4.18666 wdg=2 %r=0.36105 rdcohms=0.004651844 %loadloss=0.7221 %noloadloss=0.2423 xhl=1.5158 normhkva=37.5 emerghkva=53.2
new object=transformer.5869628416-1c phases=1 buses=[5869628416.3,x_5869628416-c.3] conns=[wye,wye] kvs=[7.2,0.24] kvas=[38,38] taps=[1,1] wdg=1 %r=0.36105 rdcohms=4.18666 wdg=2 %r=0.36105 rdcohms=0.004651844 %loadloss=0.7221 %noloadloss=0.2423 xhl=1.5158 normhkva=37.5 emerghkva=53.2
new object=transformer.b13553-1a phases=1 buses=[b13553.1,x_b13553-a.1] conns=[wye,wye] kvs=[7.2,0.24] kvas=[25,25] taps=[1,1] wdg=1 %r=0.38195 rdcohms=6.732098 wdg=2 %r=0.38195 rdcohms=0.007480109 %loadloss=0.7639 %noloadloss=0.0851 xhl=2.1 normhkva=25 emerghkva=35
new object=transformer.b19039-1b phases=1 buses=[b19039.2,x_b19039-b.2] conns=[wye,wye] kvs=[7.2,0.24] kvas=[25,25] taps=[1,1] wdg=1 %r=0.38195 rdcohms=6.732098 wdg=2 %r=0.38195 rdcohms=0.007480109 %loadloss=0.7639 %noloadloss=0.0851 xhl=2.1 normhkva=25 emerghkva=35
new object=transformer.b56614-1a phases=1 buses=[b56614.1,x_b56614-a.1] conns=[wye,wye] kvs=[7.2,0.24] kvas=[15,15] taps=[1,1] wdg=1 %r=0.52 rdcohms=15.27552 wdg=2 %r=0.52 rdcohms=0.0169728 %loadloss=1.04 %noloadloss=0.34 xhl=1.5 normhkva=15 emerghkva=21
new object=transformer.b17215-1c phases=1 buses=[b17215.3,x_b17215-c.3] conns=[wye,wye] kvs=[7.2,0.24] kvas=[15,15] taps=[1,1] wdg=1 %r=0.52 rdcohms=15.27552 wdg=2 %r=0.52 rdcohms=0.0169728 %loadloss=1.04 %noloadloss=0.34 xhl=1.5 normhkva=15 emerghkva=21
new object=transformer.b56691-1a phases=1 buses=[b56691.1,x_b56691-a.1] conns=[wye,wye] kvs=[7.2,0.24] kvas=[25,25] taps=[1,1] wdg=1 %r=0.38195 rdcohms=6.732098 wdg=2 %r=0.38195 rdcohms=0.007480109 %loadloss=0.7639 %noloadloss=0.0851 xhl=2.1 normhkva=25 emerghkva=35
new object=transformer.6010428821-1c phases=1 buses=[6010428821.3,x_6010428821-c.3] conns=[wye,wye] kvs=[7.2,0.24] kvas=[25,25] taps=[1,1] wdg=1 %r=0.38195 rdcohms=6.732098 wdg=2 %r=0.38195 rdcohms=0.007480109 %loadloss=0.7639 %noloadloss=0.0851 xhl=2.1 normhkva=25 emerghkva=35
new object=transformer.b61608-1c phases=1 buses=[b61608.3,x_b61608-c.3] conns=[wye,wye] kvs=[7.2,0.24] kvas=[15,15] taps=[1,1] wdg=1 %r=0.52 rdcohms=15.27552 wdg=2 %r=0.52 rdcohms=0.0169728 %loadloss=1.04 %noloadloss=0.34 xhl=1.5 normhkva=15 emerghkva=21
new object=transformer.b48184-1c phases=1 buses=[b48184.3,x_b48184-c.3] conns=[wye,wye] kvs=[7.2,0.24] kvas=[15,15] taps=[1,1] wdg=1 %r=0.52 rdcohms=15.27552 wdg=2 %r=0.52 rdcohms=0.0169728 %loadloss=1.04 %noloadloss=0.34 xhl=1.5 normhkva=15 emerghkva=21
new object=transformer.5840028380-1c phases=1 buses=[5840028380.3,x_5840028380-c.3] conns=[wye,wye] kvs=[7.2,0.24] kvas=[15,15] taps=[1,1] wdg=1 %r=0.52 rdcohms=15.27552 wdg=2 %r=0.52 rdcohms=0.0169728 %loadloss=1.04 %noloadloss=0.34 xhl=1.5 normhkva=15 emerghkva=21
new object=transformer.b60931-1c phases=1 buses=[b60931.3,x_b60931-c.3] conns=[wye,wye] kvs=[7.2,0.24] kvas=[25,25] taps=[1,1] wdg=1 %r=0.38195 rdcohms=6.732098 wdg=2 %r=0.38195 rdcohms=0.007480109 %loadloss=0.7639 %noloadloss=0.0851 xhl=2.1 normhkva=25 emerghkva=35
new object=transformer.b4781-1c phases=1 buses=[b4781.3,x_b4781-c.3] conns=[wye,wye] kvs=[7.2,0.24] kvas=[15,15] taps=[1,1] wdg=1 %r=0.52 rdcohms=15.27552 wdg=2 %r=0.52 rdcohms=0.0169728 %loadloss=1.04 %noloadloss=0.34 xhl=1.5 normhkva=15 emerghkva=21
new object=transformer.b59109-1b phases=1 buses=[b59109.2,x_b59109-b.2] conns=[wye,wye] kvs=[7.2,0.24] kvas=[25,25] taps=[1,1] wdg=1 %r=0.38195 rdcohms=6.732098 wdg=2 %r=0.38195 rdcohms=0.007480109 %loadloss=0.7639 %noloadloss=0.0851 xhl=2.1 normhkva=25 emerghkva=35
new object=transformer.b4997-1a phases=1 buses=[b4997.1,x_b4997-a.1] conns=[wye,wye] kvs=[7.2,0.24] kvas=[25,25] taps=[1,1] wdg=1 %r=0.38195 rdcohms=6.732098 wdg=2 %r=0.38195 rdcohms=0.007480109 %loadloss=0.7639 %noloadloss=0.0851 xhl=2.1 normhkva=25 emerghkva=35
new object=transformer.5944828194-1c phases=1 buses=[5944828194.3,x_5944828194-c.3] conns=[wye,wye] kvs=[7.2,0.24] kvas=[25,25] taps=[1,1] wdg=1 %r=0.38195 rdcohms=6.732098 wdg=2 %r=0.38195 rdcohms=0.007480109 %loadloss=0.7639 %noloadloss=0.0851 xhl=2.1 normhkva=25 emerghkva=35
new object=transformer.b56674-1b phases=1 buses=[b56674.2,x_b56674-b.2] conns=[wye,wye] kvs=[7.2,0.24] kvas=[15,15] taps=[1,1] wdg=1 %r=0.52 rdcohms=15.27552 wdg=2 %r=0.52 rdcohms=0.0169728 %loadloss=1.04 %noloadloss=0.34 xhl=1.5 normhkva=15 emerghkva=21
new object=transformer.b55313-1b phases=1 buses=[b55313.2,x_b55313-b.2] conns=[wye,wye] kvs=[7.2,0.24] kvas=[15,15] taps=[1,1] wdg=1 %r=0.52 rdcohms=15.27552 wdg=2 %r=0.52 rdcohms=0.0169728 %loadloss=1.04 %noloadloss=0.34 xhl=1.5 normhkva=15 emerghkva=21
new object=transformer.b4607-1c phases=1 buses=[b4607.3,x_b4607-c.3] conns=[wye,wye] kvs=[7.2,0.24] kvas=[25,25] taps=[1,1] wdg=1 %r=0.38195 rdcohms=6.732098 wdg=2 %r=0.38195 rdcohms=0.007480109 %loadloss=0.7639 %noloadloss=0.0851 xhl=2.1 normhkva=25 emerghkva=35
new object=transformer.b42005-1a phases=1 buses=[b42005.1,x_b42005-a.1] conns=[wye,wye] kvs=[7.2,0.24] kvas=[25,25] taps=[1,1] wdg=1 %r=0.38195 rdcohms=6.732098 wdg=2 %r=0.38195 rdcohms=0.007480109 %loadloss=0.7639 %noloadloss=0.0851 xhl=2.1 normhkva=25 emerghkva=35
new object=transformer.b4731-1c phases=1 buses=[b4731.3,x_b4731-c.3] conns=[wye,wye] kvs=[7.2,0.24] kvas=[25,25] taps=[1,1] wdg=1 %r=0.38195 rdcohms=6.732098 wdg=2 %r=0.38195 rdcohms=0.007480109 %loadloss=0.7639 %noloadloss=0.0851 xhl=2.1 normhkva=25 emerghkva=35
new object=transformer.b44732-1a phases=1 buses=[b44732.1,x_b44732-a.1] conns=[wye,wye] kvs=[7.2,0.24] kvas=[15,15] taps=[1,1] wdg=1 %r=0.52 rdcohms=15.27552 wdg=2 %r=0.52 rdcohms=0.0169728 %loadloss=1.04 %noloadloss=0.34 xhl=1.5 normhkva=15 emerghkva=21
new object=transformer.b57664-1c phases=1 buses=[b57664.3,x_b57664-c.3] conns=[wye,wye] kvs=[7.2,0.24] kvas=[15,15] taps=[1,1] wdg=1 %r=0.52 rdcohms=15.27552 wdg=2 %r=0.52 rdcohms=0.0169728 %loadloss=1.04 %noloadloss=0.34 xhl=1.5 normhkva=15 emerghkva=21
new object=transformer.6012728993-1b phases=1 buses=[6012728993.2,x_6012728993-b.2] conns=[wye,wye] kvs=[7.2,0.24] kvas=[38,38] taps=[1,1] wdg=1 %r=0.36105 rdcohms=4.18666 wdg=2 %r=0.36105 rdcohms=0.004651844 %loadloss=0.7221 %noloadloss=0.2423 xhl=1.5158 normhkva=37.5 emerghkva=53.2
new object=transformer.b41858-1b phases=1 buses=[b41858.2,x_b41858-b.2] conns=[wye,wye] kvs=[7.2,0.24] kvas=[15,15] taps=[1,1] wdg=1 %r=0.52 rdcohms=15.27552 wdg=2 %r=0.52 rdcohms=0.0169728 %loadloss=1.04 %noloadloss=0.34 xhl=1.5 normhkva=15 emerghkva=21
new object=transformer.b39683-1a phases=1 buses=[b39683.1,x_b39683-a.1] conns=[wye,wye] kvs=[7.2,0.24] kvas=[38,38] taps=[1,1] wdg=1 %r=0.36105 rdcohms=4.18666 wdg=2 %r=0.36105 rdcohms=0.004651844 %loadloss=0.7221 %noloadloss=0.2423 xhl=1.5158 normhkva=37.5 emerghkva=53.2
new object=transformer.5925727418-1c phases=1 buses=[5925727418.3,x_5925727418-c.3] conns=[wye,wye] kvs=[7.2,0.24] kvas=[25,25] taps=[1,1] wdg=1 %r=0.38195 rdcohms=6.732098 wdg=2 %r=0.38195 rdcohms=0.007480109 %loadloss=0.7639 %noloadloss=0.0851 xhl=2.1 normhkva=25 emerghkva=35
...


!!!regcontrol.dss
new object=regcontrol.subxfmr transformer=subxfmr vreg=124 winding=2 tapwinding=2 band=2 ptratio=60 delay=90 tapdelay=30
new object=regcontrol.regxfmr_b18865_ctrl transformer=regxfmr_b18865 winding=2 tapwinding=2 vreg=124 ptratio=60 band=2 enabled=true delay=45
new object=regcontrol.regxfmr_b19008_ctrl transformer=regxfmr_b19008 winding=2 tapwinding=2 vreg=124 ptratio=60 band=2 enabled=true delay=46
new object=regcontrol.regxfmr_b18863_ctrl transformer=regxfmr_b18863 winding=2 tapwinding=2 vreg=124 ptratio=60 band=2 enabled=true delay=47
new object=regcontrol.regxfmr_b19010_ctrl transformer=regxfmr_b19010 winding=2 tapwinding=2 vreg=124 ptratio=60 band=2 enabled=true delay=48
new object=regcontrol.regxfmr_b4874_ctrl transformer=regxfmr_b4874 winding=2 tapwinding=2 vreg=124 ptratio=60 band=2 enabled=true delay=49
new object=regcontrol.regxfmr_b18864_ctrl transformer=regxfmr_b18864 winding=2 tapwinding=2 vreg=124 ptratio=60 band=2 enabled=true delay=50
new object=regcontrol.regxfmr_b4872_ctrl transformer=regxfmr_b4872 winding=2 tapwinding=2 vreg=124 ptratio=60 band=2 enabled=true delay=51
new object=regcontrol.regxfmr_b4868_ctrl transformer=regxfmr_b4868 winding=2 tapwinding=2 vreg=124 ptratio=60 band=2 enabled=true delay=52


!!!linecode.dss
new object=linecode.oh-3x_477aac_477aacn nphases=3 r1=0.12241 x1=0.39494 r0=0.25708 x0=1.1977 c1=11.197 c0=4.8372 units=km basefreq=60 normamps=732 emergamps=871
new object=linecode.oh-3v_477aac_4/0aaacn nphases=3 r1=0.12241 x1=0.38976 r0=0.33614 x0=1.2772 c1=11.354 c0=4.7672 units=km basefreq=60 normamps=732 emergamps=871
new object=linecode.oh-1x_1/0acsr_1/0acsrn nphases=1 r1=0.5273 x1=0.55913 r0=0.84236 x0=1.3956 c1=9.1185 c0=5.1312 units=km basefreq=60 normamps=269 emergamps=319
new object=linecode.oh-1x_4/0aaac_4/0aaacn nphases=1 r1=0.27278 x1=0.51302 r0=0.49247 x0=1.2558 c1=9.6689 c0=5.3444 units=km basefreq=60 normamps=451 emergamps=537
new object=linecode.oh-3x_1/0aaac_1/0aaacn nphases=3 r1=0.54556 x1=0.52589 r0=0.85342 x0=1.4978 c1=9.8297 c0=4.5149 units=km basefreq=60 normamps=264 emergamps=314
new object=linecode.oh-3x_477aac_1/0aaacn nphases=3 r1=0.12241 x1=0.39494 r0=0.43026 x0=1.3668 c1=11.197 c0=4.7832 units=km basefreq=60 normamps=732 emergamps=871
new object=linecode.oh-1x_1/0aaac_1/0aaacn nphases=1 r1=0.54556 x1=0.55913 r0=0.8663 x0=1.4015 c1=9.1185 c0=5.1312 units=km basefreq=60 normamps=264 emergamps=314
new object=linecode.oh-1x_2aaac_4/0aaacn nphases=1 r1=0.86868 x1=0.56322 r0=1.0884 x0=1.306 c1=8.7858 c0=5.0631 units=km basefreq=60 normamps=155 emergamps=183
new object=linecode.oh-1x_2aaac_2aaacn nphases=1 r1=0.86868 x1=0.56322 r0=1.2523 x0=1.5109 c1=8.7858 c0=5.0003 units=km basefreq=60 normamps=155 emergamps=183
new object=linecode.oh-1x_2al_2aln nphases=1 r1=0.87116 x1=0.50694 r0=1.2729 x0=1.4495 c1=8.6774 c0=4.9573 units=km basefreq=60 normamps=161 emergamps=212
new object=linecode.oh-3x_2al_2aln nphases=3 r1=0.87116 x1=0.4737 r0=1.0834 x0=1.353 c1=9.3191 c0=4.4259 units=km basefreq=60 normamps=161 emergamps=212
new object=linecode.oh-3x_477aac_4cun nphases=3 r1=0.12241 x1=0.39494 r0=0.49885 x0=1.4571 c1=11.197 c0=4.74 units=km basefreq=60 normamps=732 emergamps=871
new object=linecode.oh-3v_477aac_477aacn nphases=3 r1=0.12241 x1=0.38976 r0=0.25767 x0=1.1995 c1=11.354 c0=4.7952 units=km basefreq=60 normamps=732 emergamps=871
new object=linecode.oh-1x_2/0cu_2/0cun nphases=1 r1=0.2734 x1=0.48069 r0=0.50137 x0=1.2055 c1=9.1779 c0=5.1544 units=km basefreq=60 normamps=374 emergamps=459
new object=linecode.oh-3x_4cu_4/0aaacn nphases=3 r1=0.85376 x1=0.49485 r0=1.066 x0=1.3742 c1=8.7903 c0=4.3029 units=km basefreq=60 normamps=142 emergamps=142
new object=linecode.oh-3x_2aaac_2aaacn nphases=3 r1=0.86868 x1=0.52999 r0=1.2364 x0=1.6003 c1=9.4442 c0=4.4182 units=km basefreq=60 normamps=155 emergamps=183
new object=linecode.oh-3x_1/0aaac_4cun nphases=3 r1=0.54556 x1=0.52589 r0=0.922 x0=1.588 c1=9.8297 c0=4.4764 units=km basefreq=60 normamps=264 emergamps=314
new object=linecode.oh-3x_1/0cu_1cun nphases=3 r1=0.34486 x1=0.45596 r0=0.63392 x0=1.3716 c1=9.6953 c0=4.4774 units=km basefreq=60 normamps=323 emergamps=396
new object=linecode.oh-1x_477aac_4/0aaacn nphases=1 r1=0.12241 x1=0.42818 r0=0.35579 x0=1.1432 c1=10.284 c0=5.5164 units=km basefreq=60 normamps=732 emergamps=871
new object=linecode.oh-2x_477aac_4/0aaacn nphases=2 r1=0.12241 x1=0.42797 r0=0.33496 x0=1.2067 c1=10.289 c0=5.2422 units=km basefreq=60 normamps=732 emergamps=871
new object=linecode.oh-3x_477aac_4/0aaacn nphases=3 r1=0.12241 x1=0.39494 r0=0.33466 x0=1.2743 c1=11.197 c0=4.8089 units=km basefreq=60 normamps=732 emergamps=871
new object=linecode.oh-3x_2cu_4cun nphases=3 r1=0.5442 x1=0.47442 r0=0.92064 x0=1.5366 c1=9.3084 c0=4.365 units=km basefreq=60 normamps=188 emergamps=188
new object=linecode.oh-2x_2cu_4cun nphases=2 r1=0.5442 x1=0.50745 r0=0.9213 x0=1.4695 c1=8.6718 c0=4.7202 units=km basefreq=60 normamps=188 emergamps=188
new object=linecode.oh-1x_2cu_4cun nphases=1 r1=0.5442 x1=0.50766 r0=0.93721 x0=1.4468 c1=8.6681 c0=4.9212 units=km basefreq=60 normamps=188 emergamps=188
new object=linecode.oh-3x_4cu_4cun nphases=3 r1=0.85376 x1=0.49485 r0=1.2302 x0=1.557 c1=8.7903 c0=4.2476 units=km basefreq=60 normamps=142 emergamps=142
new object=linecode.oh-2x_4cu_4cun nphases=2 r1=0.85376 x1=0.52788 r0=1.2309 x0=1.49 c1=8.2205 c0=4.5833 units=km basefreq=60 normamps=142 emergamps=142
new object=linecode.oh-1x_4cu_4cun nphases=1 r1=0.85376 x1=0.52809 r0=1.2468 x0=1.4672 c1=8.2172 c0=4.7725 units=km basefreq=60 normamps=142 emergamps=142
new object=linecode.oh-3x_4cu_2aln nphases=3 r1=0.85376 x1=0.49485 r0=1.2384 x0=1.5602 c1=8.7903 c0=4.2655 units=km basefreq=60 normamps=142 emergamps=142
new object=linecode.oh-3x_477aac_4/0aan nphases=3 r1=0.12241 x1=0.39494 r0=0.33466 x0=1.2743 c1=11.197 c0=4.8089 units=km basefreq=60 normamps=732 emergamps=871
new object=linecode.oh-3v_477aac_1/0aaacn nphases=3 r1=0.12241 x1=0.38976 r0=0.43283 x0=1.3712 c1=11.354 c0=4.7417 units=km basefreq=60 normamps=732 emergamps=871
new object=linecode.oh-1x_2aaac_default nphases=1 r1=0.86868 x1=0.56322 r0=1.2523 x0=1.5109 c1=8.7858 c0=5.0003 units=km basefreq=60 normamps=155 emergamps=183
new object=linecode.oh-1x_477aac_477aacn nphases=1 r1=0.12241 x1=0.42818 r0=0.2601 x0=1.0886 c1=10.284 c0=5.578 units=km basefreq=60 normamps=732 emergamps=871
new object=linecode.ug-1c1/0alaer_15 nphases=1 r1=0.64001 x1=0.16156 r0=1.5074 x0=1.7554 c1=194.49 c0=11.195 units=km basefreq=60 normamps=225 emergamps=225
...